*MOSIS PROCESS=HP
*RUN=n73d
*WAFER=12
*Gate-oxide thickness= 98 angstroms 
*DATE=29-Apr-1997
*
*NMOS PARAMETERS
*
.MODEL PC1_NM1_DU1 NMOS LEVEL=13 VFB0=
+ -6.80607E-01,-6.86681E-02, 4.50008E-02,
+  8.47613E-01, 0.00000E+00, 0.00000E+00,
+  6.01443E-01, 7.82031E-02,-2.18716E-02,
+ -2.77338E-02, 7.00395E-02,-1.77697E-02,
+ -1.89669E-03, 1.09188E-02, 9.05089E-04,
+  4.71732E+02,1.82845E-001,4.69842E-001,
+  1.90363E-01, 1.37876E-01,-9.87009E-02,
+  3.38185E-02, 3.34934E-02,-6.54824E-03,
+  1.09437E+01,-8.00677E+00, 1.07092E+01,
+  4.84646E-04,-5.52111E-03, 3.67962E-03,
+ -1.80652E-04,-2.33361E-03,-4.76699E-04,
+ -3.39029E-03,-8.77004E-03, 1.34775E-02,
+ -2.58969E-04, 2.45025E-03,-2.55828E-03,
+  5.02851E+02, 2.78575E+01,-1.65152E+01,
+ -6.61169E-01, 7.73249E-01, 7.33160E+00,
+  6.22713E+00, 5.97490E+00,-3.21173E+00,
+  1.22964E-02, 4.45897E-04,-3.52587E-03,
+ 9.80000E-003, 2.70000E+01, 3.30000E+00,
+ 4.83207E-010,4.83207E-010,4.33370E-010,
+ 1.00000E+000,0.00000E+000,0.00000E+000,
+ 1.00000E+000,0.00000E+000,0.00000E+000,
+ 0.00000E+000,0.00000E+000,0.00000E+000,
+ 0.00000E+000,0.00000E+000,0.00000E+000,
+ 2.3,    5.837100e-04,    2.000000e-11,    1e-08,    0.99999,
+ 0.99999,    0.72033,    0.66799,    0,    0
*
* Gate Oxide Thickness is 98 Angstroms
*
*
*PMOS PARAMETERS
*
.MODEL PC1_PM1_DU2 PMOS LEVEL=13 VFB0=
+ -7.44787E-02, 2.27761E-02,-9.08848E-02,
+  7.95230E-01, 0.00000E+00, 0.00000E+00,
+  2.30683E-01,-3.97834E-02, 1.26676E-01,
+ -8.40683E-02, 1.57748E-02, 3.36992E-02,
+ -7.72543E-03, 1.99575E-02,-2.26997E-03,
+  1.35037E+02,1.70716E-001,4.83377E-001,
+  1.92641E-01, 6.94131E-02,-6.26155E-02,
+  2.87794E-03, 2.46023E-02,-1.07021E-03,
+  7.73274E+00,-1.93995E+00, 1.84651E+00,
+  1.04641E-04,-1.43971E-03,-2.37148E-04,
+  1.74625E-04,-9.63001E-04,-1.35763E-03,
+  1.08732E-02,-3.42444E-03, 5.98282E-03,
+  2.36043E-03, 9.36790E-04,-8.65688E-04,
+  1.35602E+02, 1.57252E+01, 1.68122E+00,
+  6.37540E+00,-4.63700E-01, 2.72772E+00,
+  3.13689E-01, 8.73850E-01, 6.09061E-01,
+ -7.43232E-03,-2.73246E-03, 3.12373E-03,
+ 9.80000E-003, 2.70000E+01, 3.30000E+00,
+ 4.51153E-010,4.51153E-010,4.40739E-010,
+ 1.00000E+000,0.00000E+000,0.00000E+000,
+ 1.00000E+000,0.00000E+000,0.00000E+000,
+ 0.00000E+000,0.00000E+000,0.00000E+000,
+ 0.00000E+000,0.00000E+000,0.00000E+000,
+ 2,    9.335700e-04,    1.878400e-10,    1e-08,    0.87223,
+ 0.87223,    0.48458,    0.1743,    0,    0
*
*N+ diffusion:: 
*
.MODEL PC1_DU1 R
+ RSH=2.3 COX=0.000584 CAPSW=2e-11 W=0 DW=0
*
*P+ diffusion:: 
*
.MODEL PC1_DU2 R
+ RSH=2 COX=0.000934 CAPSW=1.88e-10 W=0 DW=0
*
*METAL LAYER -- 1
*
.MODEL PC1_ML1 R
+ RSH=0.07 COX=2.6e-05 CAPSW=0 W=0 DW=0
*
*METAL LAYER -- 2
*
.MODEL PC1_ML2 R
+ RSH=0.07 COX=1.3e-05 CAPSW=0 W=0 DW=0
